
  ACD/LABS04182319523D

 40 44  0  0  1  0  0  0  0  0  1 V2000
   18.7847   -6.4578   -2.0216 C   0  0  0  0  0  0  0  0  0  0  0  0
   17.4847   -6.0807   -1.8514 C   0  0  0  0  0  0  0  0  0  0  0  0
   19.6943   -5.7779   -2.7745 C   0  0  0  0  0  0  0  0  0  0  0  0
   17.0681   -4.8705   -2.3788 C   0  0  0  0  0  0  0  0  0  0  0  0
   19.2967   -4.5612   -3.3125 C   0  0  0  0  0  0  0  0  0  0  0  0
   17.9907   -4.1082   -3.0991 C   0  0  0  0  0  0  0  0  0  0  0  0
   19.0067   -7.7069   -1.3775 C   0  0  0  0  0  0  0  0  0  0  0  0
   19.7749   -8.6094   -2.3038 C   0  0  0  0  0  0  0  0  0  0  0  0
   17.6136   -8.2021   -1.0412 C   0  0  0  0  0  0  0  0  0  0  0  0
   21.1805   -7.9667   -2.5763 C   0  0  0  0  0  0  0  0  0  0  0  0
   18.9955   -8.7657   -3.5788 C   0  0  0  0  0  0  0  0  0  0  0  0
   16.7395   -7.0476   -1.1824 O   0  0  0  0  0  0  0  0  0  0  0  0
   17.1717   -9.3637   -1.9997 C   0  0  0  0  0  0  0  0  0  0  0  0
   21.0493   -6.4355   -3.0215 C   0  0  0  0  0  0  0  0  0  0  0  0
   21.9630   -8.0363   -1.3315 N   0  0  0  0  0  0  0  0  0  0  0  0
   17.7119   -9.1268   -3.4162 C   0  0  0  0  0  0  0  0  0  0  0  0
   15.7548   -9.4200   -2.0456 O   0  0  0  0  0  0  0  0  0  0  0  0
   15.7881   -4.4406   -2.2167 O   0  0  0  0  0  0  0  0  0  0  0  0
   23.3571   -7.6257   -1.5536 C   0  0  0  0  0  0  0  0  0  0  0  0
   19.9185   -9.6121   -1.8396 H   0  0  0  0  0  0  0  0  0  0  0  0
   21.3225   -7.1799   -0.3121 C   0  0  0  0  0  0  0  0  0  0  0  0
   19.8476   -7.5860   -0.0787 C   0  0  0  0  0  0  0  0  0  0  0  0
   17.5788   -8.5994    0.0000 H   0  0  0  0  0  0  0  0  0  0  0  0
   21.6885   -8.5338   -3.3906 H   0  0  0  0  0  0  0  0  0  0  0  0
   17.5755  -10.3275   -1.6103 H   0  0  0  0  0  0  0  0  0  0  0  0
   20.0152   -3.9572   -3.9068 H   0  0  0  0  0  0  0  0  0  0  0  0
   17.6800   -3.1237   -3.5096 H   0  0  0  0  0  0  0  0  0  0  0  0
   19.3600   -8.6178   -4.6179 H   0  0  0  0  0  0  0  0  0  0  0  0
   21.2458   -6.3601   -4.1124 H   0  0  0  0  0  0  0  0  0  0  0  0
   21.8010   -5.8341   -2.4668 H   0  0  0  0  0  0  0  0  0  0  0  0
   17.1473   -9.2211   -4.3683 H   0  0  0  0  0  0  0  0  0  0  0  0
   15.2717  -10.2576   -1.7471 H   0  0  0  0  0  0  0  0  0  0  0  0
   15.4952   -3.5598   -2.6199 H   0  0  0  0  0  0  0  0  0  0  0  0
   23.5561   -7.5671   -2.6451 H   0  0  0  0  0  0  0  0  0  0  0  0
   23.5273   -6.6294   -1.0922 H   0  0  0  0  0  0  0  0  0  0  0  0
   24.0402   -8.3708   -1.0922 H   0  0  0  0  0  0  0  0  0  0  0  0
   21.8979   -7.2823    0.6327 H   0  0  0  0  0  0  0  0  0  0  0  0
   21.3745   -6.1280   -0.6659 H   0  0  0  0  0  0  0  0  0  0  0  0
   19.3757   -6.8198    0.5728 H   0  0  0  0  0  0  0  0  0  0  0  0
   19.8362   -8.5697    0.4375 H   0  0  0  0  0  0  0  0  0  0  0  0
  7  1  1  0  0  0  0
  1  2  1  0  0  0  0
  2 12  1  0  0  0  0
  1  3  2  0  0  0  0
  3 14  1  0  0  0  0
  2  4  2  0  0  0  0
  4 18  1  0  0  0  0
  3  5  1  0  0  0  0
  4  6  1  0  0  0  0
  5  6  2  0  0  0  0
  7  8  1  0  0  0  0
  7  9  1  0  0  0  0
  7 22  1  1  0  0  0
  8 10  1  0  0  0  0
  8 11  1  0  0  0  0
  8 20  1  1  0  0  0
  9 12  1  6  0  0  0
  9 13  1  0  0  0  0
 10 15  1  1  0  0  0
 10 14  1  0  0  0  0
 11 16  2  0  0  0  0
 13 17  1  6  0  0  0
 13 16  1  0  0  0  0
 15 19  1  0  0  0  0
 21 15  1  0  0  0  0
 22 21  1  0  0  0  0
 23  9  1  0  0  0  0
 24 10  1  0  0  0  0
 25 13  1  0  0  0  0
 26  5  1  0  0  0  0
 27  6  1  0  0  0  0
 28 11  1  0  0  0  0
 29 14  1  0  0  0  0
 30 14  1  0  0  0  0
 31 16  1  0  0  0  0
 32 17  1  0  0  0  0
 33 18  1  0  0  0  0
 34 19  1  0  0  0  0
 35 19  1  0  0  0  0
 36 19  1  0  0  0  0
 37 21  1  0  0  0  0
 38 21  1  0  0  0  0
 39 22  1  0  0  0  0
 40 22  1  0  0  0  0
M  END
